units metal
atom_style atomic

read_data C_GAP17_NVT_64_2.0_1/2.0_gcm
Reading data file ...
  orthogonal box = (0.0000000 0.0000000 0.0000000) to (8.6072316 8.6072316 8.6072316)
  reading atoms ...
  64 atoms
reset_timestep 0

mass 1 12.011
pair_style quip
pair_coeff * * /home/omega/vld/scat9451/main_project/carbon.xml "" 6
#pair_coeff * * carbon.xml "Potential xml_label=GAP_2017_1_20_0_21_37_48_267" 6

neighbor 2.0 bin
neigh_modify every 1 delay 0 check yes

variable Nfreq equal 100
variable Nprint equal 100
variable Nevery equal 100
variable Nrepeat equal 100/100
variable Ndump equal 100
variable nAtoms equal atoms

group carbon type 1
64 atoms in group carbon

timestep 0.001

fix removeMomentum all momentum 1 linear 1 1 1

compute T all temp
fix TempAve all ave/time 100 1 100 c_T

variable P equal press
fix PressAve all ave/time 100 1 100 v_P

variable v equal vol
fix vAve all ave/time 100 1 100 v_v

compute PE all pe pair
fix PEAve all ave/time 100 1 100 c_PE
compute PEa all pe/atom pair

compute MSD all msd

thermo_style custom step cpu temp f_TempAve press f_PressAve f_PEAve vol f_vAve c_MSD[4]
thermo_modify flush yes

thermo 100

dump 1 all custom 100 C_GAP17_NVT_64_2.0_1/NVT/dump_custom.C.*.dat id type x y z fx fy fz c_PEa
dump_modify 1 pad 5

restart 100 C_GAP17_NVT_64_2.0_1/restart/restart_nvt_C.*

# Compute cumulative run lengths so we can use run ... upto
variable Nrun1 equal 3000
variable Nrun2 equal (3000+3000)
variable Nrun3 equal (6000+500)
variable Nrun4 equal (6500+3000)

velocity all create 5000 32375

run 0
  update every 1 steps, delay 0 steps, check yes
Step CPU Temp f_TempAve Press f_PressAve f_PEAve Volume f_vAve c_MSD[4]
0            0         5000         5000    151174.44    151174.44   -9768.7152    637.66191    637.66191            0
Loop time of 1.46627e-05 on 16 procs for 0 steps with 64 atoms

# ---------------- Step 1: hold at t_randomize for randomize_timesteps ----------------
fix integrator all nve
fix thermostat all langevin 9000 9000 0.1 32375

run 3000 upto
Step CPU Temp f_TempAve Press f_PressAve f_PEAve Volume f_vAve c_MSD[4]
0            0         5000         5000    151174.44    151174.44   -9768.7152    637.66191    637.66191            0
Averages over the last 16 of 31 rows, steps 1500 to 3000:
Temp f_TempAve Press f_PressAve f_PEAve Volume f_vAve c_MSD[4]
8661.54 8661.54 89198.2 89198.2 -9963.12 637.662 637.662 133.029
Loop time of 150.002 on 16 procs for 3000 steps with 64 atoms

unfix thermostat
unfix integrator

# ---------------- Step 2: hold at t_melt for melt_timesteps ----------------
fix integrator all nve
fix thermostat all langevin 5000 5000 0.1 32375

run 6000 upto start 3000 stop 6000
Step CPU Temp f_TempAve Press f_PressAve f_PEAve Volume f_vAve c_MSD[4]
3000            0    7508.2074    7508.2074    51672.756    51672.756   -9969.5139    637.66191    637.66191    167.88993
Averages over the last 14 of 28 rows, steps 4400 to 5700:
Temp f_TempAve Press f_PressAve f_PEAve Volume f_vAve c_MSD[4]
5223.88 5223.88 32180.8 32180.8 -10012.2 637.662 637.662 188.854
