units metal
atom_style atomic

read_data C_GAP17_NVT_64_1.5_5/1.5_gcm
Reading data file ...
  orthogonal box = (0.0000000 0.0000000 0.0000000) to (9.4734842 9.4734842 9.4734842)
  reading atoms ...
  64 atoms
reset_timestep 0

mass 1 12.011
pair_style quip
pair_coeff * * /home/omega/vld/scat9451/main_project/carbon.xml "" 6
#pair_coeff * * carbon.xml "Potential xml_label=GAP_2017_1_20_0_21_37_48_267" 6

neighbor 2.0 bin
neigh_modify every 1 delay 0 check yes

variable Nfreq equal 100
variable Nprint equal 100
variable Nevery equal 100
variable Nrepeat equal 100/100
variable Ndump equal 100
variable nAtoms equal atoms

group carbon type 1
64 atoms in group carbon

timestep 0.001

fix removeMomentum all momentum 1 linear 1 1 1

compute T all temp
fix TempAve all ave/time 100 1 100 c_T

variable P equal press
fix PressAve all ave/time 100 1 100 v_P

variable v equal vol
fix vAve all ave/time 100 1 100 v_v

compute PE all pe pair
fix PEAve all ave/time 100 1 100 c_PE
compute PEa all pe/atom pair

compute MSD all msd

thermo_style custom step cpu temp f_TempAve press f_PressAve f_PEAve vol f_vAve c_MSD[4]
thermo_modify flush yes

thermo 100

dump 1 all custom 100 C_GAP17_NVT_64_1.5_5/NVT/dump_custom.C.*.dat id type x y z fx fy fz c_PEa
dump_modify 1 pad 5

restart 100 C_GAP17_NVT_64_1.5_5/restart/restart_nvt_C.*

# Compute cumulative run lengths so we can use run ... upto
variable Nrun1 equal 3000
variable Nrun2 equal (3000+3000)
variable Nrun3 equal (6000+500)
variable Nrun4 equal (6500+3000)

velocity all create 5000 21172

run 0
  update every 1 steps, delay 0 steps, check yes
Step CPU Temp f_TempAve Press f_PressAve f_PEAve Volume f_vAve c_MSD[4]
0            0         5000         5000   -157885.86   -157885.86   -9821.8734    850.21588    850.21588            0
Loop time of 7.00355e-06 on 16 procs for 0 steps with 64 atoms

# ---------------- Step 1: hold at t_randomize for randomize_timesteps ----------------
fix integrator all nve
fix thermostat all langevin 9000 9000 0.1 21172

run 3000 upto
Step CPU Temp f_TempAve Press f_PressAve f_PEAve Volume f_vAve c_MSD[4]
0            0         5000         5000   -157885.86   -157885.86   -9821.8734    850.21588    850.21588            0
Averages over the last 16 of 31 rows, steps 1500 to 3000:
Temp f_TempAve Press f_PressAve f_PEAve Volume f_vAve c_MSD[4]
9081.55 9081.55 16591.3 16591.3 -9961.41 850.216 850.216 123.293
Loop time of 130.245 on 16 procs for 3000 steps with 64 atoms

unfix thermostat
unfix integrator

# ---------------- Step 2: hold at t_melt for melt_timesteps ----------------
fix integrator all nve
fix thermostat all langevin 5000 5000 0.1 21172

run 6000 upto start 3000 stop 6000
Step CPU Temp f_TempAve Press f_PressAve f_PEAve Volume f_vAve c_MSD[4]
3000            0    8717.4201    8717.4201    18791.919    18791.919   -9965.0189    850.21588    850.21588    162.14845
Averages over the last 16 of 31 rows, steps 4500 to 6000:
Temp f_TempAve Press f_PressAve f_PEAve Volume f_vAve c_MSD[4]
4776.39 4776.39 3035.67 3035.67 -10005.6 850.216 850.216 192.966
Loop time of 127.864 on 16 procs for 3000 steps with 64 atoms

unfix thermostat
unfix integrator

# ---------------- Step 3: exponential quench from t_melt -> t_cool over cool_timesteps ----------------
variable Tmelt equal 5000
variable Tquench equal 300
variable k equal 7
variable nsteps_quench equal 500
variable nchunks equal 5  # 500/5 = 100 steps per chunk to allow equilibration
variable chunk_size equal 500/5
variable ichunk loop 5

label quench_loop
variable frac equal (v_ichunk-1.0)/(v_nchunks-1.0)
variable Tcurrent equal v_Tquench+(v_Tmelt-v_Tquench)*exp(-v_k*v_frac)

fix integrator all nve
fix thermostat all langevin 5000 5000 0.01 21172
run 100
Step CPU Temp f_TempAve Press f_PressAve f_PEAve Volume f_vAve c_MSD[4]
6000            0    5315.1377    5315.1377    6688.4172    6688.4172   -10002.994    850.21588    850.21588    195.56464
Loop time of 4.33597 on 16 procs for 100 steps with 64 atoms

unfix thermostat
unfix integrator

next ichunk
jump SELF quench_loop
variable frac equal (v_ichunk-1.0)/(v_nchunks-1.0)
variable Tcurrent equal v_Tquench+(v_Tmelt-v_Tquench)*exp(-v_k*v_frac)

fix integrator all nve
fix thermostat all langevin 1116.73753421709 1116.73753421709 0.01 21172
run 100
Step CPU Temp f_TempAve Press f_PressAve f_PEAve Volume f_vAve c_MSD[4]
6100            0    5110.7157    5110.7157    17283.788    17283.788   -10003.387    850.21588    850.21588    198.71936
Loop time of 4.63199 on 16 procs for 100 steps with 64 atoms

unfix thermostat
unfix integrator

next ichunk
jump SELF quench_loop
variable frac equal (v_ichunk-1.0)/(v_nchunks-1.0)
variable Tcurrent equal v_Tquench+(v_Tmelt-v_Tquench)*exp(-v_k*v_frac)

fix integrator all nve
fix thermostat all langevin 441.927702084897 441.927702084897 0.01 21172
run 100
Step CPU Temp f_TempAve Press f_PressAve f_PEAve Volume f_vAve c_MSD[4]
6200            0    1115.1817    1115.1817    4670.2079    4670.2079   -10040.641    850.21588    850.21588    198.40854
Loop time of 4.1664 on 16 procs for 100 steps with 64 atoms

unfix thermostat
unfix integrator

next ichunk
jump SELF quench_loop
variable frac equal (v_ichunk-1.0)/(v_nchunks-1.0)
variable Tcurrent equal v_Tquench+(v_Tmelt-v_Tquench)*exp(-v_k*v_frac)

fix integrator all nve
fix thermostat all langevin 324.663336476152 324.663336476152 0.01 21172
run 100
Step CPU Temp f_TempAve Press f_PressAve f_PEAve Volume f_vAve c_MSD[4]
6300            0    426.07806    426.07806    26038.266    26038.266    -10049.65    850.21588    850.21588    198.85191
Loop time of 4.48796 on 16 procs for 100 steps with 64 atoms

unfix thermostat
unfix integrator

next ichunk
jump SELF quench_loop
variable frac equal (v_ichunk-1.0)/(v_nchunks-1.0)
variable Tcurrent equal v_Tquench+(v_Tmelt-v_Tquench)*exp(-v_k*v_frac)

fix integrator all nve
fix thermostat all langevin 304.285845238106 304.285845238106 0.01 21172
run 100
Step CPU Temp f_TempAve Press f_PressAve f_PEAve Volume f_vAve c_MSD[4]
6400            0    333.42858    333.42858    13246.458    13246.458   -10051.615    850.21588    850.21588    198.86943
Loop time of 4.47254 on 16 procs for 100 steps with 64 atoms

unfix thermostat
unfix integrator

next ichunk
jump SELF quench_loop

# ---------------- Step 4: anneal at t_anneal for anneal_timesteps ----------------
fix integrator all nve
fix thermostat all langevin 300 300 0.1 21172

run 9500 upto start 6500 stop 9500
Step CPU Temp f_TempAve Press f_PressAve f_PEAve Volume f_vAve c_MSD[4]
6500            0    277.82484    277.82484     5810.451     5810.451   -10051.862    850.21588    850.21588    198.84078
