units metal
atom_style atomic

read_data C_GAP17_NVT_64_1.5_4/1.5_gcm
Reading data file ...
  orthogonal box = (0.0000000 0.0000000 0.0000000) to (9.4734842 9.4734842 9.4734842)
  reading atoms ...
  64 atoms
reset_timestep 0

mass 1 12.011
pair_style quip
pair_coeff * * /home/omega/vld/scat9451/main_project/carbon.xml "" 6
#pair_coeff * * carbon.xml "Potential xml_label=GAP_2017_1_20_0_21_37_48_267" 6

neighbor 2.0 bin
neigh_modify every 1 delay 0 check yes

variable Nfreq equal 100
variable Nprint equal 100
variable Nevery equal 100
variable Nrepeat equal 100/100
variable Ndump equal 100
variable nAtoms equal atoms

group carbon type 1
64 atoms in group carbon

timestep 0.001

fix removeMomentum all momentum 1 linear 1 1 1

compute T all temp
fix TempAve all ave/time 100 1 100 c_T

variable P equal press
fix PressAve all ave/time 100 1 100 v_P

variable v equal vol
fix vAve all ave/time 100 1 100 v_v

compute PE all pe pair
fix PEAve all ave/time 100 1 100 c_PE
compute PEa all pe/atom pair

compute MSD all msd

thermo_style custom step cpu temp f_TempAve press f_PressAve f_PEAve vol f_vAve c_MSD[4]
thermo_modify flush yes

thermo 100

dump 1 all custom 100 C_GAP17_NVT_64_1.5_4/NVT/dump_custom.C.*.dat id type x y z fx fy fz c_PEa
dump_modify 1 pad 5

restart 100 C_GAP17_NVT_64_1.5_4/restart/restart_nvt_C.*

# Compute cumulative run lengths so we can use run ... upto
variable Nrun1 equal 3000
variable Nrun2 equal (3000+3000)
variable Nrun3 equal (6000+500)
variable Nrun4 equal (6500+3000)

velocity all create 5000 5211

run 0
  update every 1 steps, delay 0 steps, check yes
Step CPU Temp f_TempAve Press f_PressAve f_PEAve Volume f_vAve c_MSD[4]
0            0         5000         5000   -157885.86   -157885.86   -9821.8734    850.21588    850.21588            0
Loop time of 6.22869e-06 on 16 procs for 0 steps with 64 atoms

# ---------------- Step 1: hold at t_randomize for randomize_timesteps ----------------
fix integrator all nve
fix thermostat all langevin 9000 9000 0.1 5211

run 3000 upto
Step CPU Temp f_TempAve Press f_PressAve f_PEAve Volume f_vAve c_MSD[4]
0            0         5000         5000   -157885.86   -157885.86   -9821.8734    850.21588    850.21588            0
Averages over the last 16 of 31 rows, steps 1500 to 3000:
Temp f_TempAve Press f_PressAve f_PEAve Volume f_vAve c_MSD[4]
8805.41 8805.41 4861.64 4861.64 -9964.98 850.216 850.216 110.519
Loop time of 136.111 on 16 procs for 3000 steps with 64 atoms

unfix thermostat
unfix integrator

# ---------------- Step 2: hold at t_melt for melt_timesteps ----------------
fix integrator all nve
fix thermostat all langevin 5000 5000 0.1 5211

run 6000 upto start 3000 stop 6000
Step CPU Temp f_TempAve Press f_PressAve f_PEAve Volume f_vAve c_MSD[4]
3000            0    10285.995    10285.995    16308.667    16308.667   -9951.4212    850.21588    850.21588    153.72736
Averages over the last 16 of 31 rows, steps 4500 to 6000:
Temp f_TempAve Press f_PressAve f_PEAve Volume f_vAve c_MSD[4]
5002.24 5002.24 -8377.16 -8377.16 -10005.3 850.216 850.216 194.595
Loop time of 148.83 on 16 procs for 3000 steps with 64 atoms

unfix thermostat
unfix integrator

# ---------------- Step 3: exponential quench from t_melt -> t_cool over cool_timesteps ----------------
variable Tmelt equal 5000
variable Tquench equal 300
variable k equal 7
variable nsteps_quench equal 500
variable nchunks equal 5  # 500/5 = 100 steps per chunk to allow equilibration
variable chunk_size equal 500/5
variable ichunk loop 5

label quench_loop
variable frac equal (v_ichunk-1.0)/(v_nchunks-1.0)
variable Tcurrent equal v_Tquench+(v_Tmelt-v_Tquench)*exp(-v_k*v_frac)

fix integrator all nve
fix thermostat all langevin 5000 5000 0.01 5211
run 100
Step CPU Temp f_TempAve Press f_PressAve f_PEAve Volume f_vAve c_MSD[4]
6000            0    4931.8029    4931.8029    8849.8661    8849.8661   -10009.715    850.21588    850.21588    209.24662
Loop time of 4.23756 on 16 procs for 100 steps with 64 atoms

unfix thermostat
unfix integrator

next ichunk
jump SELF quench_loop
variable frac equal (v_ichunk-1.0)/(v_nchunks-1.0)
variable Tcurrent equal v_Tquench+(v_Tmelt-v_Tquench)*exp(-v_k*v_frac)

fix integrator all nve
fix thermostat all langevin 1116.73753421709 1116.73753421709 0.01 5211
run 100
Step CPU Temp f_TempAve Press f_PressAve f_PEAve Volume f_vAve c_MSD[4]
6100            0    5109.7948    5109.7948     -6198.52     -6198.52   -10002.597    850.21588    850.21588    206.84047
Loop time of 4.50182 on 16 procs for 100 steps with 64 atoms

unfix thermostat
unfix integrator

next ichunk
jump SELF quench_loop
variable frac equal (v_ichunk-1.0)/(v_nchunks-1.0)
variable Tcurrent equal v_Tquench+(v_Tmelt-v_Tquench)*exp(-v_k*v_frac)

fix integrator all nve
fix thermostat all langevin 441.927702084897 441.927702084897 0.01 5211
run 100
Step CPU Temp f_TempAve Press f_PressAve f_PEAve Volume f_vAve c_MSD[4]
6200            0    1258.9816    1258.9816   -43050.874   -43050.874   -10043.235    850.21588    850.21588    206.69465
